$
$ Model Definition
$ ----------------
$
$ Structural Model
$ NASTRAN input file created by the MSC MSC/NASTRAN input file
$ translator ( MSC/PATRAN Version 9.0 ) on July      10, 2000 at
$ 10:24:31.
$
$ Direct Text Input for Bulk Data
$ Elements and Element Properties for region : Cabin
$ Pset: "Cabin" will be imported as: "pbeaml.1"
PBEAML   1       1               TUBE
         .2      .195            YES     1.      .4      .395
CBEAM    11      1       12      13      0.      0.      1.
PBEAML   2       1               TUBE
         .4      .395            YES     1.      .6      .595
CBEAM    12      2       13      14      0.      0.      1.
PBEAML   3       1               TUBE
         .6      .595            YES     1.      .6      .595
CBEAM    13      3       14      15      0.      0.      1.
PBEAML   4       1               TUBE
         .6      .595            YES     1.      .6      .595
CBEAM    14      4       15      1       0.      0.      1.
$ Elements and Element Properties for region : Wings
PBEAML   5       1               BOX
         .6      .2      .0025   .0025           YES     1.      .6
         .2      .0025   .0025
$ Pset: "Wings" will be imported as: "pbeaml.5"
CBEAM    15      5       1       18      0.      0.      1.
CBEAM    16      5       18      19      0.      0.      1.
CBEAM    17      5       19      20      0.      0.      1.
CBEAM    18      5       20      21      0.      0.      1.
CBEAM    19      5       21      22      0.      0.      1.
CBEAM    20      5       22      23      0.      0.      1.
CBEAM    21      5       23      24      0.      0.      1.
CBEAM    22      5       24      25      0.      0.      1.
CBEAM    23      5       25      26      0.      0.      1.
CBEAM    24      5       26      27      0.      0.      1.
CBEAM    25      5       27      28      0.      0.      1.
CBEAM    26      5       28      29      0.      0.      1.
CBEAM    27      5       29      30      0.      0.      1.
CBEAM    28      5       30      31      0.      0.      1.
CBEAM    29      5       31      32      0.      0.      1.
CBEAM    30      5       1       34      0.      0.      1.
CBEAM    31      5       34      35      0.      0.      1.
CBEAM    32      5       35      36      0.      0.      1.
CBEAM    33      5       36      37      0.      0.      1.
CBEAM    34      5       37      38      0.      0.      1.
$ ... 10 like lines cut
$ Elements and Element Properties for region : Rudder
PBEAML   6       1               BOX
         .05     .5      .001    .001            YES     1.      .05
         .5      .001    .001
$ Pset: "Rudder" will be imported as: "pbeaml.6"
CBEAM    45      6       11      50     -1.      0.      0.
CBEAM    46      6       50      51     -1.      0.      0.
CBEAM    47      6       51      52     -1.      0.      0.
$ Elements and Element Properties for region : Elevator
PBEAML   7       1               BOX
         .5      .05     .001    .001            YES     1.      .5
         .05     .001    .001
$ Pset: "Elevator" will be imported as: "pbeaml.7"
CBEAM    48      7       52      54      0.      0.      1.
CBEAM    49      7       54      55      0.      0.      1.
CBEAM    50      7       52      57      0.      0.      1.
CBEAM    51      7       57      58      0.      0.      1.
$ Elements and Element Properties for region : plotel
PLOTEL   101     101     102
PLOTEL   102     102     103
PLOTEL   103     103     104
PLOTEL   104     104     105
PLOTEL   105     105     106
PLOTEL   106     106     107
PLOTEL   107     107     108
PLOTEL   108     109     110
PLOTEL   109     110     111
PLOTEL   110     111     112
PLOTEL   111     112     113
PLOTEL   112     113     114
PLOTEL   113     114     115
PLOTEL   114     115     116
PLOTEL   115     117     118
PLOTEL   116     118     119
PLOTEL   117     119     120
PLOTEL   118     120     121
PLOTEL   119     121     122
PLOTEL   120     122     123
$ ... 8 like lines cut
$ Elements and Element Properties for region : Tail
$ Pset: "Tail" will be imported as: "pbeaml.7"
PBEAML   8       1               TUBE
         .6      .598            YES     1.      .5      .498
CBEAM    1       8       1       2       0.      0.      1.
PBEAML   9       1               TUBE
         .5      .498            YES     1.      .3      .298
CBEAM    2       9       2       3       0.      0.      1.
PBEAML   10      1               TUBE
         .3      .298            YES     1.      .11     .108
CBEAM    3       10      3       4       0.      0.      1.
PBEAML   11      1               TUBE
         .11     .108            YES     1.      .108571 .106571
CBEAM    4       11      4       5       0.      0.      1.
PBEAML   12      1               TUBE
         .108571 .106571         YES     1.      .107143 .105143
CBEAM    5       12      5       6       0.      0.      1.
PBEAML   13      1               TUBE
         .107143 .105143         YES     1.      .105714 .103714
CBEAM    6       13      6       7       0.      0.      1.
PBEAML   14      1               TUBE
         .105714 .103714         YES     1.      .104286 .102286
CBEAM    7       14      7       8       0.      0.      1.
PBEAML   15      1               TUBE
         .104286 .102286         YES     1.      .102857 .100857
CBEAM    8       15      8       9       0.      0.      1.
PBEAML   16      1               TUBE
         .102857 .100857         YES     1.      .101429 .099429
CBEAM    9       16      9       10      0.      0.      1.
PBEAML   17      1               TUBE
         .101429 .099429         YES     1.      .1      .098
CBEAM    10      17      10      11      0.      0.      1.
$ Elements and Element Properties for region : Mass
CONM2    129     12              85.
$ Referenced Material Records
$ Material Record : aluminium_iso_SI
$ Description of Material : Date: 26-Jul-94           Time: 17:54:56
MAT1*    1               7.+10                           .3
*        2700.           2.32-5
$ Multipoint Constraints of Group : structure
$ ID conflict : the PATRAN MPC ID was 1
RBAR     130     101     48              123456  123456
$ ID conflict : the PATRAN MPC ID was 2
RBAR     131     117     48              123456  123456
$ ID conflict : the PATRAN MPC ID was 3
RBAR     132     102     46              123456  123456
$ ID conflict : the PATRAN MPC ID was 4
RBAR     133     118     46              123456  123456
$ ID conflict : the PATRAN MPC ID was 5
RBAR     134     103     44              123456  123456
$ ID conflict : the PATRAN MPC ID was 6
RBAR     135     119     44              123456  123456
$ ID conflict : the PATRAN MPC ID was 7
RBAR     136     104     42              123456  123456
$ ID conflict : the PATRAN MPC ID was 8
RBAR     137     120     42              123456  123456
$ ID conflict : the PATRAN MPC ID was 9
RBAR     138     105     40              123456  123456
$ ID conflict : the PATRAN MPC ID was 10
RBAR     139     121     40              123456  123456
$ ID conflict : the PATRAN MPC ID was 11
RBAR     140     106     38              123456  123456
$ ID conflict : the PATRAN MPC ID was 12
RBAR     141     122     38              123456  123456
$ ID conflict : the PATRAN MPC ID was 13
RBAR     142     107     36              123456  123456
$ ID conflict : the PATRAN MPC ID was 14
RBAR     143     123     36              123456  123456
$ ID conflict : the PATRAN MPC ID was 15
RBAR     144     108     34              123456  123456
$ ID conflict : the PATRAN MPC ID was 16
RBAR     145     124     34              123456  123456
$ ID conflict : the PATRAN MPC ID was 17
RBAR     146     109     18              123456  123456
$ ID conflict : the PATRAN MPC ID was 18
RBAR     147     125     18              123456  123456
$ ID conflict : the PATRAN MPC ID was 19
RBAR     148     110     20              123456  123456
$ ID conflict : the PATRAN MPC ID was 20
RBAR     149     126     20              123456  123456
$ ... 24 like lines cut
$ Nodes of Group : structure
GRID     1               1.      0.      0.
GRID     2               1.5     0.      0.
GRID     3               2.      0.      0.
GRID     4               2.5     0.      0.
GRID     5               3.      0.      0.
GRID     6               3.5     0.      0.
GRID     7               4.      0.      0.
GRID     8               4.5     0.      0.
GRID     9               5.      0.      0.
GRID     10              5.5     0.      0.
GRID     11              6.      0.      0.
GRID     12              0.      0.      0.
GRID     13              .25     0.      0.
GRID     14              .5      0.      0.
GRID     15              .75     0.      0.
GRID     18              1.     -.5      0.
GRID     19              1.     -1.      0.
GRID     20              1.     -1.5     0.
GRID     21              1.     -2.      0.
GRID     22              1.     -2.5     0.
$ ... 64 like lines cut
$
